* NGSPICE file created from follower_amp.ext - technology: sky130A

.subckt sky130_fd_pr__pfet_g5v0d10v5_AQ2WAW a_1293_n197# a_n761_n197# a_1235_n100#
+ a_n1551_n197# a_761_n100# a_n29_n100# a_1393_n100# a_1451_n197# a_n187_n100# a_1551_n100#
+ a_n819_n100# a_n345_n100# a_n1609_n100# a_29_n197# a_n977_n100# a_n1135_n100# a_n129_n197#
+ a_187_n197# a_129_n100# a_n503_n100# a_n1293_n100# a_n287_n197# a_819_n197# a_n661_n100#
+ a_345_n197# a_n1077_n197# a_287_n100# a_n1451_n100# a_n919_n197# a_977_n197# a_n445_n197#
+ a_919_n100# a_503_n197# a_n1235_n197# a_445_n100# w_n1809_n397# a_1077_n100# a_1135_n197#
+ a_n603_n197# a_n1393_n197# a_661_n197# a_603_n100#
X0 a_919_n100# a_819_n197# a_761_n100# w_n1809_n397# sky130_fd_pr__pfet_g5v0d10v5 ad=0.145 pd=1.29 as=0.145 ps=1.29 w=1 l=0.5
X1 a_445_n100# a_345_n197# a_287_n100# w_n1809_n397# sky130_fd_pr__pfet_g5v0d10v5 ad=0.145 pd=1.29 as=0.145 ps=1.29 w=1 l=0.5
X2 a_603_n100# a_503_n197# a_445_n100# w_n1809_n397# sky130_fd_pr__pfet_g5v0d10v5 ad=0.145 pd=1.29 as=0.145 ps=1.29 w=1 l=0.5
X3 a_n1293_n100# a_n1393_n197# a_n1451_n100# w_n1809_n397# sky130_fd_pr__pfet_g5v0d10v5 ad=0.145 pd=1.29 as=0.145 ps=1.29 w=1 l=0.5
X4 a_n1451_n100# a_n1551_n197# a_n1609_n100# w_n1809_n397# sky130_fd_pr__pfet_g5v0d10v5 ad=0.145 pd=1.29 as=0.29 ps=2.58 w=1 l=0.5
X5 a_n977_n100# a_n1077_n197# a_n1135_n100# w_n1809_n397# sky130_fd_pr__pfet_g5v0d10v5 ad=0.145 pd=1.29 as=0.145 ps=1.29 w=1 l=0.5
X6 a_n1135_n100# a_n1235_n197# a_n1293_n100# w_n1809_n397# sky130_fd_pr__pfet_g5v0d10v5 ad=0.145 pd=1.29 as=0.145 ps=1.29 w=1 l=0.5
X7 a_n661_n100# a_n761_n197# a_n819_n100# w_n1809_n397# sky130_fd_pr__pfet_g5v0d10v5 ad=0.145 pd=1.29 as=0.145 ps=1.29 w=1 l=0.5
X8 a_129_n100# a_29_n197# a_n29_n100# w_n1809_n397# sky130_fd_pr__pfet_g5v0d10v5 ad=0.145 pd=1.29 as=0.145 ps=1.29 w=1 l=0.5
X9 a_n187_n100# a_n287_n197# a_n345_n100# w_n1809_n397# sky130_fd_pr__pfet_g5v0d10v5 ad=0.145 pd=1.29 as=0.145 ps=1.29 w=1 l=0.5
X10 a_n819_n100# a_n919_n197# a_n977_n100# w_n1809_n397# sky130_fd_pr__pfet_g5v0d10v5 ad=0.145 pd=1.29 as=0.145 ps=1.29 w=1 l=0.5
X11 a_n345_n100# a_n445_n197# a_n503_n100# w_n1809_n397# sky130_fd_pr__pfet_g5v0d10v5 ad=0.145 pd=1.29 as=0.145 ps=1.29 w=1 l=0.5
X12 a_n503_n100# a_n603_n197# a_n661_n100# w_n1809_n397# sky130_fd_pr__pfet_g5v0d10v5 ad=0.145 pd=1.29 as=0.145 ps=1.29 w=1 l=0.5
X13 a_n29_n100# a_n129_n197# a_n187_n100# w_n1809_n397# sky130_fd_pr__pfet_g5v0d10v5 ad=0.145 pd=1.29 as=0.145 ps=1.29 w=1 l=0.5
X14 a_1393_n100# a_1293_n197# a_1235_n100# w_n1809_n397# sky130_fd_pr__pfet_g5v0d10v5 ad=0.145 pd=1.29 as=0.145 ps=1.29 w=1 l=0.5
X15 a_1077_n100# a_977_n197# a_919_n100# w_n1809_n397# sky130_fd_pr__pfet_g5v0d10v5 ad=0.145 pd=1.29 as=0.145 ps=1.29 w=1 l=0.5
X16 a_1551_n100# a_1451_n197# a_1393_n100# w_n1809_n397# sky130_fd_pr__pfet_g5v0d10v5 ad=0.29 pd=2.58 as=0.145 ps=1.29 w=1 l=0.5
X17 a_761_n100# a_661_n197# a_603_n100# w_n1809_n397# sky130_fd_pr__pfet_g5v0d10v5 ad=0.145 pd=1.29 as=0.145 ps=1.29 w=1 l=0.5
X18 a_287_n100# a_187_n197# a_129_n100# w_n1809_n397# sky130_fd_pr__pfet_g5v0d10v5 ad=0.145 pd=1.29 as=0.145 ps=1.29 w=1 l=0.5
X19 a_1235_n100# a_1135_n197# a_1077_n100# w_n1809_n397# sky130_fd_pr__pfet_g5v0d10v5 ad=0.145 pd=1.29 as=0.145 ps=1.29 w=1 l=0.5
.ends

.subckt sky130_fd_pr__nfet_g5v0d10v5_UNEQFS a_50_n100# a_n242_n322# a_n108_n100# a_n50_n188#
X0 a_50_n100# a_n50_n188# a_n108_n100# a_n242_n322# sky130_fd_pr__nfet_g5v0d10v5 ad=0.29 pd=2.58 as=0.29 ps=2.58 w=1 l=0.5
.ends

.subckt sky130_fd_pr__nfet_g5v0d10v5_CNP982 B D S G
X0 S G D B sky130_fd_pr__nfet_g5v0d10v5 ad=0.29 pd=2.58 as=0.29 ps=2.58 w=1 l=0.5
.ends

.subckt sky130_fd_pr__pfet_g5v0d10v5_KLJMY6 a_n208_n197# a_208_n100# a_n50_n197# a_50_n100#
+ a_n108_n100# w_n466_n397# a_n266_n100# a_108_n197#
X0 a_208_n100# a_108_n197# a_50_n100# w_n466_n397# sky130_fd_pr__pfet_g5v0d10v5 ad=0.29 pd=2.58 as=0.145 ps=1.29 w=1 l=0.5
X1 a_50_n100# a_n50_n197# a_n108_n100# w_n466_n397# sky130_fd_pr__pfet_g5v0d10v5 ad=0.145 pd=1.29 as=0.145 ps=1.29 w=1 l=0.5
X2 a_n108_n100# a_n208_n197# a_n266_n100# w_n466_n397# sky130_fd_pr__pfet_g5v0d10v5 ad=0.145 pd=1.29 as=0.29 ps=2.58 w=1 l=0.5
.ends

.subckt sky130_fd_pr__pfet_g5v0d10v5_KLWMS5 a_n29_n100# a_n187_n100# w_n545_n397#
+ a_n345_n100# a_29_n197# a_n129_n197# a_187_n197# a_129_n100# a_n287_n197# a_287_n100#
X0 a_129_n100# a_29_n197# a_n29_n100# w_n545_n397# sky130_fd_pr__pfet_g5v0d10v5 ad=0.145 pd=1.29 as=0.145 ps=1.29 w=1 l=0.5
X1 a_n187_n100# a_n287_n197# a_n345_n100# w_n545_n397# sky130_fd_pr__pfet_g5v0d10v5 ad=0.145 pd=1.29 as=0.29 ps=2.58 w=1 l=0.5
X2 a_n29_n100# a_n129_n197# a_n187_n100# w_n545_n397# sky130_fd_pr__pfet_g5v0d10v5 ad=0.145 pd=1.29 as=0.145 ps=1.29 w=1 l=0.5
X3 a_287_n100# a_187_n197# a_129_n100# w_n545_n397# sky130_fd_pr__pfet_g5v0d10v5 ad=0.29 pd=2.58 as=0.145 ps=1.29 w=1 l=0.5
.ends

.subckt sky130_fd_pr__res_xhigh_po_0p35_F8HFBR B R1_0 R2_0 R1_1 R2_1 R1_2 R2_2 R1_3
+ R2_3 R1_4 R2_4 R1_5 R2_5 R1_6 R2_6 R1_7 R2_7 R1_8 R2_8 R1_9 R2_9 R1_10 R2_10 R1_11
+ R2_11
X0 R1_11 R2_11 B sky130_fd_pr__res_xhigh_po_0p35 l=11.66
X1 R1_7 R2_7 B sky130_fd_pr__res_xhigh_po_0p35 l=11.66
X2 R1_10 R2_10 B sky130_fd_pr__res_xhigh_po_0p35 l=11.66
X3 R1_5 R2_5 B sky130_fd_pr__res_xhigh_po_0p35 l=11.66
X4 R1_2 R2_2 B sky130_fd_pr__res_xhigh_po_0p35 l=11.66
X5 R1_8 R2_8 B sky130_fd_pr__res_xhigh_po_0p35 l=11.66
X6 R1_9 R2_9 B sky130_fd_pr__res_xhigh_po_0p35 l=11.66
X7 R1_3 R2_3 B sky130_fd_pr__res_xhigh_po_0p35 l=11.66
X8 R1_4 R2_4 B sky130_fd_pr__res_xhigh_po_0p35 l=11.66
X9 R1_6 R2_6 B sky130_fd_pr__res_xhigh_po_0p35 l=11.66
X10 R1_0 R2_0 B sky130_fd_pr__res_xhigh_po_0p35 l=11.66
X11 R1_1 R2_1 B sky130_fd_pr__res_xhigh_po_0p35 l=11.66
.ends

.subckt sky130_fd_pr__nfet_g5v0d10v5_FJGQFC a_n321_n322# a_n29_n100# a_n187_n100#
+ a_129_n100# a_29_n188# a_n129_n188#
X0 a_129_n100# a_29_n188# a_n29_n100# a_n321_n322# sky130_fd_pr__nfet_g5v0d10v5 ad=0.29 pd=2.58 as=0.145 ps=1.29 w=1 l=0.5
X1 a_n29_n100# a_n129_n188# a_n187_n100# a_n321_n322# sky130_fd_pr__nfet_g5v0d10v5 ad=0.145 pd=1.29 as=0.29 ps=2.58 w=1 l=0.5
.ends

.subckt sky130_fd_pr__diode_pw2nd_05v5_FT76RJ a_n147_n147# a_n45_n45#
X0 a_n147_n147# a_n45_n45# sky130_fd_pr__diode_pw2nd_05v5 perim=1.8e+06 area=2.025e+11
.ends

.subckt sky130_fd_pr__nfet_g5v0d10v5_XJGQ2Y a_n321_n322# a_n29_n100# a_n187_n100#
+ a_129_n100# a_29_n188# a_n129_n188#
X0 a_129_n100# a_29_n188# a_n29_n100# a_n321_n322# sky130_fd_pr__nfet_g5v0d10v5 ad=0.29 pd=2.58 as=0.145 ps=1.29 w=1 l=0.5
X1 a_n29_n100# a_n129_n188# a_n187_n100# a_n321_n322# sky130_fd_pr__nfet_g5v0d10v5 ad=0.145 pd=1.29 as=0.29 ps=2.58 w=1 l=0.5
.ends

.subckt sky130_fd_pr__nfet_05v0_nvt_BH6ZTK a_n29_n100# a_209_n100# a_n209_n188# a_n401_n322#
+ a_n267_n100# a_29_n188#
X0 a_209_n100# a_29_n188# a_n29_n100# a_n401_n322# sky130_fd_pr__nfet_05v0_nvt ad=0.29 pd=2.58 as=0.145 ps=1.29 w=1 l=0.9
X1 a_n29_n100# a_n209_n188# a_n267_n100# a_n401_n322# sky130_fd_pr__nfet_05v0_nvt ad=0.145 pd=1.29 as=0.29 ps=2.58 w=1 l=0.9
.ends

.subckt sky130_fd_pr__pfet_g5v0d10v5_Z8JNCQ a_n345_118# a_1393_n2934# a_977_n851#
+ a_603_n1626# a_n1451_2734# a_1551_n2498# a_29_n415# a_n661_554# a_n1551_21# a_1451_1329#
+ a_445_118# a_n445_n851# a_n129_n2595# a_761_554# a_n129_1765# a_n661_2298# a_n187_n754#
+ a_29_n1287# a_n977_n2062# a_345_893# a_287_2298# a_1235_n1626# a_n129_n415# a_977_n3031#
+ a_n1235_n2595# a_445_1862# a_761_n2498# a_n29_n2498# a_603_n318# a_187_1765# a_n503_1426#
+ a_29_2637# a_n1235_n851# a_129_1426# a_919_2734# a_1077_990# a_n287_457# a_187_n415#
+ a_n603_n2595# a_445_n1626# a_n977_990# a_n1293_1426# a_n603_2201# a_1393_n2498#
+ a_n1451_2298# a_1135_2201# a_977_21# a_503_n851# a_919_n1626# a_n1393_2201# a_n1135_n2934#
+ a_n129_2637# a_29_n2159# a_1077_n1626# a_n1609_n2934# a_661_2201# a_187_21# a_n1077_n2595#
+ a_445_2734# a_n187_118# a_1551_n754# a_n503_n2934# a_29_457# a_187_2637# a_129_990#
+ a_287_118# a_1077_1862# a_503_n2595# a_n819_n754# a_n287_1765# a_n445_n2595# a_287_n1626#
+ a_919_2298# a_1235_n318# a_187_893# a_1451_457# a_n287_n415# a_n919_n2595# a_1551_n1626#
+ a_1135_n2595# a_n1551_n2595# a_1451_21# a_n129_n1723# a_n1135_n2498# a_819_1765#
+ a_n603_n851# a_761_n318# a_1135_n851# a_n661_1426# a_n345_n754# a_n1609_n2498# a_819_n415#
+ a_n1393_n851# a_287_1426# a_445_2298# a_n761_2201# a_n919_457# a_n345_n2934# a_n1077_1765#
+ a_n1609_n754# a_n1235_n1723# a_n503_n2498# a_n1609_990# a_1293_2201# a_761_n1626#
+ a_603_1862# a_1077_2734# a_661_n851# a_n29_n1626# a_345_n2595# a_n1235_893# a_n445_21#
+ a_n819_n2934# a_n1077_n415# a_503_457# a_n287_n2595# a_n287_2637# a_345_1765# a_n1451_n2934#
+ a_819_n2595# a_n603_n1723# a_345_n415# a_1393_n1626# a_n1451_1426# a_n1393_n2595#
+ a_n1135_n754# a_819_2637# a_n819_118# a_n129_n1287# a_n29_n318# a_n1551_2201# a_n29_990#
+ a_1235_554# a_n919_1765# a_n1135_554# a_919_118# a_n977_n754# a_1551_990# a_n761_457#
+ a_n187_n2934# a_1393_n318# a_n1077_n1723# a_n1451_990# a_n1077_2637# a_n345_n2498#
+ a_n761_n2595# a_n919_n415# a_1293_457# a_n1235_n1287# a_819_893# a_603_2734# a_187_n2595#
+ a_1077_2298# a_n819_n2498# a_345_2637# a_977_1765# a_n761_n851# a_503_n1723# a_n1293_n2934#
+ a_1235_1862# a_1451_n2595# a_1293_n851# a_n445_n1723# a_n1451_n2498# a_29_1329#
+ a_n1077_21# a_129_n1190# a_n445_1765# a_n603_n1287# a_919_1426# a_977_n415# a_n503_990#
+ a_n919_n1723# a_n661_118# a_n445_n415# a_n129_n2159# a_n661_n2934# a_1135_n1723#
+ a_761_1862# a_603_990# a_n1551_n1723# a_n1135_n1626# a_n129_1329# a_761_118# a_n919_2637#
+ a_n187_n318# a_n1077_893# a_345_457# a_661_n2595# a_n1609_n1626# a_n187_n2498# a_345_21#
+ a_n1077_n1287# a_661_893# a_29_21# a_n503_n754# a_n1235_n2159# a_n1551_n851# a_445_1426#
+ a_603_2298# a_129_n754# a_n503_n1626# a_n1235_1765# a_603_n1190# a_n1293_n754# a_187_1329#
+ a_1451_2201# a_977_2637# a_345_n1723# a_1293_n2595# a_1235_2734# a_n287_n1723# a_n1293_n2498#
+ a_503_n1287# a_n1235_n415# a_129_n2062# a_n445_n1287# a_n129_893# a_n445_2637# a_n977_554#
+ a_1077_554# a_n603_n2159# a_503_1765# a_819_n1723# a_1393_990# a_1235_n1190# a_n1293_990#
+ a_n919_n1287# a_503_n415# a_n29_1862# a_761_2734# a_n1393_n1723# a_1135_n1287# a_n661_n2498#
+ a_n1551_n1287# a_n977_n2934# a_1393_1862# a_n1077_n2159# a_977_n2595# a_n761_n1723#
+ a_1551_n318# a_n345_n1626# a_445_n1190# a_603_n2062# a_n1235_2637# a_n345_990# a_129_554#
+ a_187_n1723# a_1077_1426# a_345_n1287# a_n603_21# a_n819_n1626# a_503_n2159# a_919_n1190#
+ a_1235_2298# a_445_990# a_n819_n318# a_n287_n1287# a_n287_1329# a_n445_n2159# a_29_n3031#
+ a_503_2637# a_1451_n1723# a_n1451_n1626# a_187_457# a_819_n1287# a_1451_n851# a_1077_n1190#
+ a_1235_n2062# a_n919_n2159# a_n603_1765# a_n661_n754# a_1135_1765# a_n29_2734# a_n1393_n1287#
+ a_1135_n2159# a_761_2298# a_287_n754# a_n1551_n2159# a_819_1329# a_n187_1862# a_n1393_1765#
+ a_n603_n415# a_1135_n415# a_1393_2734# a_n977_n2498# a_n1393_n415# a_n345_n318#
+ a_661_n1723# a_661_1765# a_n187_n1626# a_n1609_n318# a_287_n1190# a_445_n2062# a_n1077_1329#
+ a_n761_n1287# a_n1609_554# a_603_1426# a_187_n1287# a_n1235_457# a_661_n415# a_345_n2159#
+ a_1551_n1190# a_919_n2062# a_n287_n2159# a_n1451_n754# a_345_1329# a_1293_n1723#
+ a_n1551_893# a_n1293_n1626# a_1451_n1287# a_819_n2159# a_1077_n2062# a_n603_2637#
+ a_n1235_21# a_1135_2637# a_n29_2298# a_n1135_n318# a_n1393_n2159# a_n187_2734# a_n1393_2637#
+ a_n187_990# a_n661_n1626# a_761_n1190# a_n29_554# a_1235_118# a_n919_1329# a_1393_2298#
+ a_n1135_118# a_n977_n318# a_n29_n1190# a_287_990# a_661_n1287# a_n603_893# a_661_2637#
+ a_1551_554# a_287_n2062# a_n1451_554# a_1551_1862# a_n761_n2159# a_1135_893# a_503_21#
+ a_977_n1723# a_819_457# a_n761_1765# a_187_n2159# a_1293_1765# a_1393_n1190# a_1551_n2062#
+ a_919_n754# a_n819_1862# a_n761_n415# a_977_1329# a_1293_n1287# a_1235_1426# a_1451_n2159#
+ a_1293_n415# a_n445_1329# a_n503_554# a_n187_2298# a_761_1426# a_603_554# a_761_n2062#
+ a_n1077_457# a_445_n754# a_n29_n2062# a_n345_1862# a_n1551_1765# a_n977_n1626# a_661_n2159#
+ a_n1393_893# a_1551_2734# a_n1609_1862# a_29_2201# a_661_457# a_n1551_n415# a_n503_n318#
+ a_n761_2637# a_977_n1287# a_129_n318# a_1393_n2062# a_1293_2637# a_n1235_1329# a_n819_2734#
+ a_n1293_n318# a_n129_n3031# a_1293_n2159# a_n129_457# a_n129_2201# a_1077_118# a_n819_990#
+ a_n977_118# a_n1135_n1190# a_503_1329# a_n445_893# a_1393_554# a_919_990# a_n1135_1862#
+ a_n1293_554# a_1135_21# a_n1609_n1190# a_n1235_n3031# a_n29_1426# a_n919_21# a_n345_2734#
+ a_n1551_2637# a_n503_n1190# a_977_893# a_n977_1862# a_187_2201# a_1393_1426# a_n1609_2734#
+ a_1551_2298# a_1077_n754# a_n761_21# a_977_n2159# a_n603_n3031# a_n129_21# a_n345_554#
+ a_129_118# a_n819_2298# a_29_n851# a_1451_1765# a_n661_990# a_445_554# a_n1135_n2062#
+ a_129_n2934# a_761_990# a_1451_n415# a_n1135_2734# a_n1077_n3031# a_n603_1329# a_n661_n318#
+ a_n1609_n2062# a_1135_1329# a_n129_n851# a_287_n318# a_n187_1426# a_n1393_1329#
+ a_n345_n1190# a_n503_n2062# a_n977_2734# a_n345_2298# a_503_n3031# a_603_n754# a_n1609_2298#
+ a_n287_2201# a_n819_n1190# a_n445_n3031# a_n503_1862# a_661_1329# a_129_1862# a_n1609_118#
+ a_n1451_n1190# a_187_n851# a_n287_893# a_603_n2934# a_n1293_1862# a_n919_n3031#
+ a_n1393_21# a_1451_2637# a_1135_n3031# a_n1551_n3031# a_n1451_n318# a_819_2201#
+ a_n1551_457# a_129_n2498# a_29_n2595# a_n1135_2298# a_1235_n2934# a_819_21# a_n1077_2201#
+ a_n187_n1190# a_n345_n2062# a_n187_554# a_n977_2298# a_661_21# w_n1809_n3231# a_n29_118#
+ a_345_n3031# a_29_893# a_n819_n2062# a_n287_n3031# a_n503_2734# a_n603_457# a_287_554#
+ a_345_2201# a_1551_118# a_n1451_118# a_1551_1426# a_129_2734# a_n1293_n1190# a_819_n3031#
+ a_1135_457# a_n1451_n2062# a_445_n2934# a_n1293_2734# a_1235_n754# a_n761_1329#
+ a_603_n2498# a_1451_893# a_1293_1329# a_919_n318# a_n287_n851# a_n1393_n3031# a_n819_1426#
+ a_919_n2934# a_n661_n1190# a_n919_2201# a_761_n754# a_1077_n2934# a_n661_1862# a_1235_n2498#
+ a_n503_118# a_819_n851# a_287_1862# a_n761_n3031# a_n187_n2062# a_603_118# a_187_n3031#
+ a_n919_893# a_445_n318# a_n345_1426# a_n1551_1329# a_n503_2298# a_977_2201# a_n1393_457#
+ a_n1077_n851# a_1451_n3031# a_503_893# a_n1609_1426# a_n1293_n2062# a_287_n2934#
+ a_129_2298# a_n445_2201# a_445_n2498# a_n1293_2298# a_345_n851# a_1551_n2934# a_n1451_1862#
+ a_919_n2498# a_1293_21# a_n819_554# a_n661_n2062# a_n29_n754# a_129_n1626# a_n661_2734#
+ a_29_n1723# a_661_n3031# a_1077_n2498# a_1235_990# a_n445_457# a_919_554# a_1393_118#
+ a_n1135_990# a_n977_n1190# a_n1135_1426# a_287_2734# a_n1293_118# a_n761_893# a_1393_n754#
+ a_n919_n851# a_761_n2934# a_1293_893# a_n1235_2201# a_977_457# a_n977_1426# a_n29_n2934#
+ a_n287_21# a_1293_n3031# a_1077_n318# a_287_n2498# a_503_2201# a_29_1765# a_919_1862#
X0 a_919_n2934# a_819_n3031# a_761_n2934# w_n1809_n3231# sky130_fd_pr__pfet_g5v0d10v5 ad=0.145 pd=1.29 as=0.145 ps=1.29 w=1 l=0.5
X1 a_1077_n1626# a_977_n1723# a_919_n1626# w_n1809_n3231# sky130_fd_pr__pfet_g5v0d10v5 ad=0.145 pd=1.29 as=0.145 ps=1.29 w=1 l=0.5
X2 a_n1451_n1626# a_n1551_n1723# a_n1609_n1626# w_n1809_n3231# sky130_fd_pr__pfet_g5v0d10v5 ad=0.145 pd=1.29 as=0.29 ps=2.58 w=1 l=0.5
X3 a_919_n1190# a_819_n1287# a_761_n1190# w_n1809_n3231# sky130_fd_pr__pfet_g5v0d10v5 ad=0.145 pd=1.29 as=0.145 ps=1.29 w=1 l=0.5
X4 a_287_554# a_187_457# a_129_554# w_n1809_n3231# sky130_fd_pr__pfet_g5v0d10v5 ad=0.145 pd=1.29 as=0.145 ps=1.29 w=1 l=0.5
X5 a_1393_990# a_1293_893# a_1235_990# w_n1809_n3231# sky130_fd_pr__pfet_g5v0d10v5 ad=0.145 pd=1.29 as=0.145 ps=1.29 w=1 l=0.5
X6 a_n29_n754# a_n129_n851# a_n187_n754# w_n1809_n3231# sky130_fd_pr__pfet_g5v0d10v5 ad=0.145 pd=1.29 as=0.145 ps=1.29 w=1 l=0.5
X7 a_603_n754# a_503_n851# a_445_n754# w_n1809_n3231# sky130_fd_pr__pfet_g5v0d10v5 ad=0.145 pd=1.29 as=0.145 ps=1.29 w=1 l=0.5
X8 a_129_n2062# a_29_n2159# a_n29_n2062# w_n1809_n3231# sky130_fd_pr__pfet_g5v0d10v5 ad=0.145 pd=1.29 as=0.145 ps=1.29 w=1 l=0.5
X9 a_1235_1862# a_1135_1765# a_1077_1862# w_n1809_n3231# sky130_fd_pr__pfet_g5v0d10v5 ad=0.145 pd=1.29 as=0.145 ps=1.29 w=1 l=0.5
X10 a_1235_554# a_1135_457# a_1077_554# w_n1809_n3231# sky130_fd_pr__pfet_g5v0d10v5 ad=0.145 pd=1.29 as=0.145 ps=1.29 w=1 l=0.5
X11 a_n1135_1862# a_n1235_1765# a_n1293_1862# w_n1809_n3231# sky130_fd_pr__pfet_g5v0d10v5 ad=0.145 pd=1.29 as=0.145 ps=1.29 w=1 l=0.5
X12 a_1077_n2934# a_977_n3031# a_919_n2934# w_n1809_n3231# sky130_fd_pr__pfet_g5v0d10v5 ad=0.145 pd=1.29 as=0.145 ps=1.29 w=1 l=0.5
X13 a_n1451_n2934# a_n1551_n3031# a_n1609_n2934# w_n1809_n3231# sky130_fd_pr__pfet_g5v0d10v5 ad=0.145 pd=1.29 as=0.29 ps=2.58 w=1 l=0.5
X14 a_1077_990# a_977_893# a_919_990# w_n1809_n3231# sky130_fd_pr__pfet_g5v0d10v5 ad=0.145 pd=1.29 as=0.145 ps=1.29 w=1 l=0.5
X15 a_n1451_n1190# a_n1551_n1287# a_n1609_n1190# w_n1809_n3231# sky130_fd_pr__pfet_g5v0d10v5 ad=0.145 pd=1.29 as=0.29 ps=2.58 w=1 l=0.5
X16 a_919_n2498# a_819_n2595# a_761_n2498# w_n1809_n3231# sky130_fd_pr__pfet_g5v0d10v5 ad=0.145 pd=1.29 as=0.145 ps=1.29 w=1 l=0.5
X17 a_1077_n1190# a_977_n1287# a_919_n1190# w_n1809_n3231# sky130_fd_pr__pfet_g5v0d10v5 ad=0.145 pd=1.29 as=0.145 ps=1.29 w=1 l=0.5
X18 a_n345_n1626# a_n445_n1723# a_n503_n1626# w_n1809_n3231# sky130_fd_pr__pfet_g5v0d10v5 ad=0.145 pd=1.29 as=0.145 ps=1.29 w=1 l=0.5
X19 a_919_554# a_819_457# a_761_554# w_n1809_n3231# sky130_fd_pr__pfet_g5v0d10v5 ad=0.145 pd=1.29 as=0.145 ps=1.29 w=1 l=0.5
X20 a_1551_990# a_1451_893# a_1393_990# w_n1809_n3231# sky130_fd_pr__pfet_g5v0d10v5 ad=0.29 pd=2.58 as=0.145 ps=1.29 w=1 l=0.5
X21 a_445_554# a_345_457# a_287_554# w_n1809_n3231# sky130_fd_pr__pfet_g5v0d10v5 ad=0.145 pd=1.29 as=0.145 ps=1.29 w=1 l=0.5
X22 a_n1293_118# a_n1393_21# a_n1451_118# w_n1809_n3231# sky130_fd_pr__pfet_g5v0d10v5 ad=0.145 pd=1.29 as=0.145 ps=1.29 w=1 l=0.5
X23 a_445_n2062# a_345_n2159# a_287_n2062# w_n1809_n3231# sky130_fd_pr__pfet_g5v0d10v5 ad=0.145 pd=1.29 as=0.145 ps=1.29 w=1 l=0.5
X24 a_n819_1426# a_n919_1329# a_n977_1426# w_n1809_n3231# sky130_fd_pr__pfet_g5v0d10v5 ad=0.145 pd=1.29 as=0.145 ps=1.29 w=1 l=0.5
X25 a_1077_n2498# a_977_n2595# a_919_n2498# w_n1809_n3231# sky130_fd_pr__pfet_g5v0d10v5 ad=0.145 pd=1.29 as=0.145 ps=1.29 w=1 l=0.5
X26 a_n1451_n2498# a_n1551_n2595# a_n1609_n2498# w_n1809_n3231# sky130_fd_pr__pfet_g5v0d10v5 ad=0.145 pd=1.29 as=0.29 ps=2.58 w=1 l=0.5
X27 a_n345_n2934# a_n445_n3031# a_n503_n2934# w_n1809_n3231# sky130_fd_pr__pfet_g5v0d10v5 ad=0.145 pd=1.29 as=0.145 ps=1.29 w=1 l=0.5
X28 a_n345_n1190# a_n445_n1287# a_n503_n1190# w_n1809_n3231# sky130_fd_pr__pfet_g5v0d10v5 ad=0.145 pd=1.29 as=0.145 ps=1.29 w=1 l=0.5
X29 a_n1135_n754# a_n1235_n851# a_n1293_n754# w_n1809_n3231# sky130_fd_pr__pfet_g5v0d10v5 ad=0.145 pd=1.29 as=0.145 ps=1.29 w=1 l=0.5
X30 a_1235_n754# a_1135_n851# a_1077_n754# w_n1809_n3231# sky130_fd_pr__pfet_g5v0d10v5 ad=0.145 pd=1.29 as=0.145 ps=1.29 w=1 l=0.5
X31 a_n661_1426# a_n761_1329# a_n819_1426# w_n1809_n3231# sky130_fd_pr__pfet_g5v0d10v5 ad=0.145 pd=1.29 as=0.145 ps=1.29 w=1 l=0.5
X32 a_761_990# a_661_893# a_603_990# w_n1809_n3231# sky130_fd_pr__pfet_g5v0d10v5 ad=0.145 pd=1.29 as=0.145 ps=1.29 w=1 l=0.5
X33 a_n819_n1626# a_n919_n1723# a_n977_n1626# w_n1809_n3231# sky130_fd_pr__pfet_g5v0d10v5 ad=0.145 pd=1.29 as=0.145 ps=1.29 w=1 l=0.5
X34 a_603_554# a_503_457# a_445_554# w_n1809_n3231# sky130_fd_pr__pfet_g5v0d10v5 ad=0.145 pd=1.29 as=0.145 ps=1.29 w=1 l=0.5
X35 a_n819_2734# a_n919_2637# a_n977_2734# w_n1809_n3231# sky130_fd_pr__pfet_g5v0d10v5 ad=0.145 pd=1.29 as=0.145 ps=1.29 w=1 l=0.5
X36 a_n1451_118# a_n1551_21# a_n1609_118# w_n1809_n3231# sky130_fd_pr__pfet_g5v0d10v5 ad=0.145 pd=1.29 as=0.29 ps=2.58 w=1 l=0.5
X37 a_n977_n1626# a_n1077_n1723# a_n1135_n1626# w_n1809_n3231# sky130_fd_pr__pfet_g5v0d10v5 ad=0.145 pd=1.29 as=0.145 ps=1.29 w=1 l=0.5
X38 a_919_n2062# a_819_n2159# a_761_n2062# w_n1809_n3231# sky130_fd_pr__pfet_g5v0d10v5 ad=0.145 pd=1.29 as=0.145 ps=1.29 w=1 l=0.5
X39 a_919_1426# a_819_1329# a_761_1426# w_n1809_n3231# sky130_fd_pr__pfet_g5v0d10v5 ad=0.145 pd=1.29 as=0.145 ps=1.29 w=1 l=0.5
X40 a_n345_n2498# a_n445_n2595# a_n503_n2498# w_n1809_n3231# sky130_fd_pr__pfet_g5v0d10v5 ad=0.145 pd=1.29 as=0.145 ps=1.29 w=1 l=0.5
X41 a_1235_n1626# a_1135_n1723# a_1077_n1626# w_n1809_n3231# sky130_fd_pr__pfet_g5v0d10v5 ad=0.145 pd=1.29 as=0.145 ps=1.29 w=1 l=0.5
X42 a_n661_2734# a_n761_2637# a_n819_2734# w_n1809_n3231# sky130_fd_pr__pfet_g5v0d10v5 ad=0.145 pd=1.29 as=0.145 ps=1.29 w=1 l=0.5
X43 a_287_990# a_187_893# a_129_990# w_n1809_n3231# sky130_fd_pr__pfet_g5v0d10v5 ad=0.145 pd=1.29 as=0.145 ps=1.29 w=1 l=0.5
X44 a_n819_n2934# a_n919_n3031# a_n977_n2934# w_n1809_n3231# sky130_fd_pr__pfet_g5v0d10v5 ad=0.145 pd=1.29 as=0.145 ps=1.29 w=1 l=0.5
X45 a_n819_n318# a_n919_n415# a_n977_n318# w_n1809_n3231# sky130_fd_pr__pfet_g5v0d10v5 ad=0.145 pd=1.29 as=0.145 ps=1.29 w=1 l=0.5
X46 a_n819_n1190# a_n919_n1287# a_n977_n1190# w_n1809_n3231# sky130_fd_pr__pfet_g5v0d10v5 ad=0.145 pd=1.29 as=0.145 ps=1.29 w=1 l=0.5
X47 a_1235_990# a_1135_893# a_1077_990# w_n1809_n3231# sky130_fd_pr__pfet_g5v0d10v5 ad=0.145 pd=1.29 as=0.145 ps=1.29 w=1 l=0.5
X48 a_n977_118# a_n1077_21# a_n1135_118# w_n1809_n3231# sky130_fd_pr__pfet_g5v0d10v5 ad=0.145 pd=1.29 as=0.145 ps=1.29 w=1 l=0.5
X49 a_n819_2298# a_n919_2201# a_n977_2298# w_n1809_n3231# sky130_fd_pr__pfet_g5v0d10v5 ad=0.145 pd=1.29 as=0.145 ps=1.29 w=1 l=0.5
X50 a_n187_1426# a_n287_1329# a_n345_1426# w_n1809_n3231# sky130_fd_pr__pfet_g5v0d10v5 ad=0.145 pd=1.29 as=0.145 ps=1.29 w=1 l=0.5
X51 a_761_1426# a_661_1329# a_603_1426# w_n1809_n3231# sky130_fd_pr__pfet_g5v0d10v5 ad=0.145 pd=1.29 as=0.145 ps=1.29 w=1 l=0.5
X52 a_n977_n2934# a_n1077_n3031# a_n1135_n2934# w_n1809_n3231# sky130_fd_pr__pfet_g5v0d10v5 ad=0.145 pd=1.29 as=0.145 ps=1.29 w=1 l=0.5
X53 a_1077_n2062# a_977_n2159# a_919_n2062# w_n1809_n3231# sky130_fd_pr__pfet_g5v0d10v5 ad=0.145 pd=1.29 as=0.145 ps=1.29 w=1 l=0.5
X54 a_n977_n1190# a_n1077_n1287# a_n1135_n1190# w_n1809_n3231# sky130_fd_pr__pfet_g5v0d10v5 ad=0.145 pd=1.29 as=0.145 ps=1.29 w=1 l=0.5
X55 a_n1451_n2062# a_n1551_n2159# a_n1609_n2062# w_n1809_n3231# sky130_fd_pr__pfet_g5v0d10v5 ad=0.145 pd=1.29 as=0.29 ps=2.58 w=1 l=0.5
X56 a_919_2734# a_819_2637# a_761_2734# w_n1809_n3231# sky130_fd_pr__pfet_g5v0d10v5 ad=0.145 pd=1.29 as=0.145 ps=1.29 w=1 l=0.5
X57 a_n661_n318# a_n761_n415# a_n819_n318# w_n1809_n3231# sky130_fd_pr__pfet_g5v0d10v5 ad=0.145 pd=1.29 as=0.145 ps=1.29 w=1 l=0.5
X58 a_1235_n2934# a_1135_n3031# a_1077_n2934# w_n1809_n3231# sky130_fd_pr__pfet_g5v0d10v5 ad=0.145 pd=1.29 as=0.145 ps=1.29 w=1 l=0.5
X59 a_1393_n1626# a_1293_n1723# a_1235_n1626# w_n1809_n3231# sky130_fd_pr__pfet_g5v0d10v5 ad=0.145 pd=1.29 as=0.145 ps=1.29 w=1 l=0.5
X60 a_n661_2298# a_n761_2201# a_n819_2298# w_n1809_n3231# sky130_fd_pr__pfet_g5v0d10v5 ad=0.145 pd=1.29 as=0.145 ps=1.29 w=1 l=0.5
X61 a_919_990# a_819_893# a_761_990# w_n1809_n3231# sky130_fd_pr__pfet_g5v0d10v5 ad=0.145 pd=1.29 as=0.145 ps=1.29 w=1 l=0.5
X62 a_n819_n2498# a_n919_n2595# a_n977_n2498# w_n1809_n3231# sky130_fd_pr__pfet_g5v0d10v5 ad=0.145 pd=1.29 as=0.145 ps=1.29 w=1 l=0.5
X63 a_603_n1626# a_503_n1723# a_445_n1626# w_n1809_n3231# sky130_fd_pr__pfet_g5v0d10v5 ad=0.145 pd=1.29 as=0.145 ps=1.29 w=1 l=0.5
X64 a_1235_n1190# a_1135_n1287# a_1077_n1190# w_n1809_n3231# sky130_fd_pr__pfet_g5v0d10v5 ad=0.145 pd=1.29 as=0.145 ps=1.29 w=1 l=0.5
X65 a_445_990# a_345_893# a_287_990# w_n1809_n3231# sky130_fd_pr__pfet_g5v0d10v5 ad=0.145 pd=1.29 as=0.145 ps=1.29 w=1 l=0.5
X66 a_n1293_554# a_n1393_457# a_n1451_554# w_n1809_n3231# sky130_fd_pr__pfet_g5v0d10v5 ad=0.145 pd=1.29 as=0.145 ps=1.29 w=1 l=0.5
X67 a_n187_2734# a_n287_2637# a_n345_2734# w_n1809_n3231# sky130_fd_pr__pfet_g5v0d10v5 ad=0.145 pd=1.29 as=0.145 ps=1.29 w=1 l=0.5
X68 a_761_2734# a_661_2637# a_603_2734# w_n1809_n3231# sky130_fd_pr__pfet_g5v0d10v5 ad=0.145 pd=1.29 as=0.145 ps=1.29 w=1 l=0.5
X69 a_n819_1862# a_n919_1765# a_n977_1862# w_n1809_n3231# sky130_fd_pr__pfet_g5v0d10v5 ad=0.145 pd=1.29 as=0.145 ps=1.29 w=1 l=0.5
X70 a_n1135_118# a_n1235_21# a_n1293_118# w_n1809_n3231# sky130_fd_pr__pfet_g5v0d10v5 ad=0.145 pd=1.29 as=0.145 ps=1.29 w=1 l=0.5
X71 a_919_n318# a_819_n415# a_761_n318# w_n1809_n3231# sky130_fd_pr__pfet_g5v0d10v5 ad=0.145 pd=1.29 as=0.145 ps=1.29 w=1 l=0.5
X72 a_n977_n2498# a_n1077_n2595# a_n1135_n2498# w_n1809_n3231# sky130_fd_pr__pfet_g5v0d10v5 ad=0.145 pd=1.29 as=0.145 ps=1.29 w=1 l=0.5
X73 a_1393_n2934# a_1293_n3031# a_1235_n2934# w_n1809_n3231# sky130_fd_pr__pfet_g5v0d10v5 ad=0.145 pd=1.29 as=0.145 ps=1.29 w=1 l=0.5
X74 a_919_2298# a_819_2201# a_761_2298# w_n1809_n3231# sky130_fd_pr__pfet_g5v0d10v5 ad=0.145 pd=1.29 as=0.145 ps=1.29 w=1 l=0.5
X75 a_n345_n2062# a_n445_n2159# a_n503_n2062# w_n1809_n3231# sky130_fd_pr__pfet_g5v0d10v5 ad=0.145 pd=1.29 as=0.145 ps=1.29 w=1 l=0.5
X76 a_1393_n1190# a_1293_n1287# a_1235_n1190# w_n1809_n3231# sky130_fd_pr__pfet_g5v0d10v5 ad=0.145 pd=1.29 as=0.145 ps=1.29 w=1 l=0.5
X77 a_287_1426# a_187_1329# a_129_1426# w_n1809_n3231# sky130_fd_pr__pfet_g5v0d10v5 ad=0.145 pd=1.29 as=0.145 ps=1.29 w=1 l=0.5
X78 a_603_n2934# a_503_n3031# a_445_n2934# w_n1809_n3231# sky130_fd_pr__pfet_g5v0d10v5 ad=0.145 pd=1.29 as=0.145 ps=1.29 w=1 l=0.5
X79 a_1235_n2498# a_1135_n2595# a_1077_n2498# w_n1809_n3231# sky130_fd_pr__pfet_g5v0d10v5 ad=0.145 pd=1.29 as=0.145 ps=1.29 w=1 l=0.5
X80 a_761_n1626# a_661_n1723# a_603_n1626# w_n1809_n3231# sky130_fd_pr__pfet_g5v0d10v5 ad=0.145 pd=1.29 as=0.145 ps=1.29 w=1 l=0.5
X81 a_603_n1190# a_503_n1287# a_445_n1190# w_n1809_n3231# sky130_fd_pr__pfet_g5v0d10v5 ad=0.145 pd=1.29 as=0.145 ps=1.29 w=1 l=0.5
X82 a_n661_1862# a_n761_1765# a_n819_1862# w_n1809_n3231# sky130_fd_pr__pfet_g5v0d10v5 ad=0.145 pd=1.29 as=0.145 ps=1.29 w=1 l=0.5
X83 a_n187_n318# a_n287_n415# a_n345_n318# w_n1809_n3231# sky130_fd_pr__pfet_g5v0d10v5 ad=0.145 pd=1.29 as=0.145 ps=1.29 w=1 l=0.5
X84 a_761_n318# a_661_n415# a_603_n318# w_n1809_n3231# sky130_fd_pr__pfet_g5v0d10v5 ad=0.145 pd=1.29 as=0.145 ps=1.29 w=1 l=0.5
X85 a_n1293_1426# a_n1393_1329# a_n1451_1426# w_n1809_n3231# sky130_fd_pr__pfet_g5v0d10v5 ad=0.145 pd=1.29 as=0.145 ps=1.29 w=1 l=0.5
X86 a_1393_1426# a_1293_1329# a_1235_1426# w_n1809_n3231# sky130_fd_pr__pfet_g5v0d10v5 ad=0.145 pd=1.29 as=0.145 ps=1.29 w=1 l=0.5
X87 a_603_990# a_503_893# a_445_990# w_n1809_n3231# sky130_fd_pr__pfet_g5v0d10v5 ad=0.145 pd=1.29 as=0.145 ps=1.29 w=1 l=0.5
X88 a_n187_2298# a_n287_2201# a_n345_2298# w_n1809_n3231# sky130_fd_pr__pfet_g5v0d10v5 ad=0.145 pd=1.29 as=0.145 ps=1.29 w=1 l=0.5
X89 a_761_2298# a_661_2201# a_603_2298# w_n1809_n3231# sky130_fd_pr__pfet_g5v0d10v5 ad=0.145 pd=1.29 as=0.145 ps=1.29 w=1 l=0.5
X90 a_n1451_554# a_n1551_457# a_n1609_554# w_n1809_n3231# sky130_fd_pr__pfet_g5v0d10v5 ad=0.145 pd=1.29 as=0.29 ps=2.58 w=1 l=0.5
X91 a_287_2734# a_187_2637# a_129_2734# w_n1809_n3231# sky130_fd_pr__pfet_g5v0d10v5 ad=0.145 pd=1.29 as=0.145 ps=1.29 w=1 l=0.5
X92 a_761_n2934# a_661_n3031# a_603_n2934# w_n1809_n3231# sky130_fd_pr__pfet_g5v0d10v5 ad=0.145 pd=1.29 as=0.145 ps=1.29 w=1 l=0.5
X93 a_1393_n2498# a_1293_n2595# a_1235_n2498# w_n1809_n3231# sky130_fd_pr__pfet_g5v0d10v5 ad=0.145 pd=1.29 as=0.145 ps=1.29 w=1 l=0.5
X94 a_919_1862# a_819_1765# a_761_1862# w_n1809_n3231# sky130_fd_pr__pfet_g5v0d10v5 ad=0.145 pd=1.29 as=0.145 ps=1.29 w=1 l=0.5
X95 a_761_n1190# a_661_n1287# a_603_n1190# w_n1809_n3231# sky130_fd_pr__pfet_g5v0d10v5 ad=0.145 pd=1.29 as=0.145 ps=1.29 w=1 l=0.5
X96 a_n661_118# a_n761_21# a_n819_118# w_n1809_n3231# sky130_fd_pr__pfet_g5v0d10v5 ad=0.145 pd=1.29 as=0.145 ps=1.29 w=1 l=0.5
X97 a_603_n2498# a_503_n2595# a_445_n2498# w_n1809_n3231# sky130_fd_pr__pfet_g5v0d10v5 ad=0.145 pd=1.29 as=0.145 ps=1.29 w=1 l=0.5
X98 a_n819_n2062# a_n919_n2159# a_n977_n2062# w_n1809_n3231# sky130_fd_pr__pfet_g5v0d10v5 ad=0.145 pd=1.29 as=0.145 ps=1.29 w=1 l=0.5
X99 a_1393_2734# a_1293_2637# a_1235_2734# w_n1809_n3231# sky130_fd_pr__pfet_g5v0d10v5 ad=0.145 pd=1.29 as=0.145 ps=1.29 w=1 l=0.5
X100 a_n1293_2734# a_n1393_2637# a_n1451_2734# w_n1809_n3231# sky130_fd_pr__pfet_g5v0d10v5 ad=0.145 pd=1.29 as=0.145 ps=1.29 w=1 l=0.5
X101 a_n819_n754# a_n919_n851# a_n977_n754# w_n1809_n3231# sky130_fd_pr__pfet_g5v0d10v5 ad=0.145 pd=1.29 as=0.145 ps=1.29 w=1 l=0.5
X102 a_n977_554# a_n1077_457# a_n1135_554# w_n1809_n3231# sky130_fd_pr__pfet_g5v0d10v5 ad=0.145 pd=1.29 as=0.145 ps=1.29 w=1 l=0.5
X103 a_129_118# a_29_21# a_n29_118# w_n1809_n3231# sky130_fd_pr__pfet_g5v0d10v5 ad=0.145 pd=1.29 as=0.145 ps=1.29 w=1 l=0.5
X104 a_n187_1862# a_n287_1765# a_n345_1862# w_n1809_n3231# sky130_fd_pr__pfet_g5v0d10v5 ad=0.145 pd=1.29 as=0.145 ps=1.29 w=1 l=0.5
X105 a_761_1862# a_661_1765# a_603_1862# w_n1809_n3231# sky130_fd_pr__pfet_g5v0d10v5 ad=0.145 pd=1.29 as=0.145 ps=1.29 w=1 l=0.5
X106 a_287_n318# a_187_n415# a_129_n318# w_n1809_n3231# sky130_fd_pr__pfet_g5v0d10v5 ad=0.145 pd=1.29 as=0.145 ps=1.29 w=1 l=0.5
X107 a_n977_n2062# a_n1077_n2159# a_n1135_n2062# w_n1809_n3231# sky130_fd_pr__pfet_g5v0d10v5 ad=0.145 pd=1.29 as=0.145 ps=1.29 w=1 l=0.5
X108 a_287_2298# a_187_2201# a_129_2298# w_n1809_n3231# sky130_fd_pr__pfet_g5v0d10v5 ad=0.145 pd=1.29 as=0.145 ps=1.29 w=1 l=0.5
X109 a_n661_n754# a_n761_n851# a_n819_n754# w_n1809_n3231# sky130_fd_pr__pfet_g5v0d10v5 ad=0.145 pd=1.29 as=0.145 ps=1.29 w=1 l=0.5
X110 a_761_n2498# a_661_n2595# a_603_n2498# w_n1809_n3231# sky130_fd_pr__pfet_g5v0d10v5 ad=0.145 pd=1.29 as=0.145 ps=1.29 w=1 l=0.5
X111 a_n187_118# a_n287_21# a_n345_118# w_n1809_n3231# sky130_fd_pr__pfet_g5v0d10v5 ad=0.145 pd=1.29 as=0.145 ps=1.29 w=1 l=0.5
X112 a_1393_n318# a_1293_n415# a_1235_n318# w_n1809_n3231# sky130_fd_pr__pfet_g5v0d10v5 ad=0.145 pd=1.29 as=0.145 ps=1.29 w=1 l=0.5
X113 a_1235_n2062# a_1135_n2159# a_1077_n2062# w_n1809_n3231# sky130_fd_pr__pfet_g5v0d10v5 ad=0.145 pd=1.29 as=0.145 ps=1.29 w=1 l=0.5
X114 a_n1293_n318# a_n1393_n415# a_n1451_n318# w_n1809_n3231# sky130_fd_pr__pfet_g5v0d10v5 ad=0.145 pd=1.29 as=0.145 ps=1.29 w=1 l=0.5
X115 a_1393_2298# a_1293_2201# a_1235_2298# w_n1809_n3231# sky130_fd_pr__pfet_g5v0d10v5 ad=0.145 pd=1.29 as=0.145 ps=1.29 w=1 l=0.5
X116 a_n1293_2298# a_n1393_2201# a_n1451_2298# w_n1809_n3231# sky130_fd_pr__pfet_g5v0d10v5 ad=0.145 pd=1.29 as=0.145 ps=1.29 w=1 l=0.5